
No compatibility mode selected!


Circuit: * spice3 file created from transmission_gate_flat.ext - technology: sky130a

Doing analysis at TEMP = 27.000000 and TNOM = 27.000000


No. of Data Rows : 1
v(n1) = 9.000000e-01
binary raw file "transmission_gate_tb_sim_post.raw"
binary raw file "transmission_gate_sim_post.raw"
Doing analysis at TEMP = 27.000000 and TNOM = 27.000000


Total analysis time (seconds) = 0.001854

Total CPU time (seconds) = 34.685 

Total DRAM available = 191913.867 MB.
DRAM currently available = 19855.430 MB.
Maximum ngspice program size =  724.871 MB.
Current ngspice program size =  665.836 MB.

Shared ngspice pages =    9.312 MB.
Text (code) pages =    8.875 MB.
Stack = 0 bytes.
Library pages =  657.312 MB.

